LTspice 24.0.12 for Windows
Circuit: * C:\Users\dkupe\OneDrive\Documents\gitRepo\5V_Buck\5V0to3V3\Simulation\LTM4644-1.asc
Start Time: Sat Nov 30 13:39:32 2024
solver = Normal
Maximum thread count: 8
tnom = 27
temp = 27
method = modified trap
c7: Increased Cpar to 2.2e-11
c3: Increased Cpar to 2.2e-11
Direct Newton iteration for .op point succeeded.
Heightened Def Con from 0.000210789 to 0.000210789
Total elapsed time: 51.251 seconds.

