LTspice 24.0.12 for Windows
Circuit: * C:\Users\Public\Documents\kicadWorkspace\5V_Buck\Simulation\LTM4644-1.asc
Start Time: Fri Nov 29 23:41:15 2024
solver = Normal
Maximum thread count: 8
tnom = 27
temp = 27
method = modified trap
Direct Newton iteration for .op point succeeded.
Total elapsed time: 64.050 seconds.

